[General]


network = net
net.**.zombie = bernoulli(${0.0,0.3,0.5,0.7,1})
net.**.victim = 5
net.**.destAddresses = "0 20"
net.**.frameCapacity = ${5,15}
**.app.packetLength = 4096 bytes
sim-time-limit = 2s